26
angstrom
C  -1.4638 -0.0000  0.4834
C  -0.7464  1.2559  1.0101
C   0.7158  1.2586  0.5289
C   1.4284 -0.0000  1.0555
C   0.7158 -1.2586  0.5289
C   0.7463 -1.2559 -1.0101
C   0.0322 -0.0000 -1.5411
C  -1.4285 -0.0000 -1.0555
C  -0.7464 -1.2559  1.0101
C   0.7463  1.2559 -1.0101
H  -2.4798 -0.0000  0.8189
H  -0.7687  1.2559  2.0798
H  -1.2427  2.1287  0.6402
H   1.2126  2.1323  0.8960
H   1.4061 -0.0000  2.1253
H   2.4436 -0.0000  0.7172
H   1.2126 -2.1323  0.8960
H   1.7624 -1.2559 -1.3456
H   0.2470 -2.1287 -1.3758
H   0.0545 -0.0000 -2.6109
H  -1.9253 -0.8737 -1.4226
H  -1.9234  0.8753 -1.4212
H  -1.2432 -2.1296  0.6430
H  -0.7672 -1.2534  2.0799
H   0.2495  2.1295 -1.3772
H   1.7628  1.2533 -1.3442
